/*--------------------------------*- C++ -*----------------------------------*\
| =========                 |                                                 |
| \\      /  F ield         | OpenFOAM: The Open Source CFD Toolbox           |
|  \\    /   O peration     | Version:  2312                                  |
|   \\  /    A nd           | Website:  www.openfoam.com                      |
|    \\/     M anipulation  |                                                 |
\*---------------------------------------------------------------------------*/
FoamFile
{
    version     2.0;
    format      ascii;
    arch        "LSB;label=32;scalar=64";
    class       polyBoundaryMesh;
    location    "constant/polyMesh";
    object      boundary;
}
// * * * * * * * * * * * * * * * * * * * * * * * * * * * * * * * * * * * * * //

7
(
    outlet(top)
    {
        type            patch;
        nFaces          0;
        startFace       214025;
    }
    wall(tank_vertical)
    {
        type            wall;
        inGroups        1(wall);
        nFaces          3943;
        startFace       214025;
    }
    inlet(ring)
    {
        type            patch;
        nFaces          105;
        startFace       217968;
    }
    defaultFaces
    {
        type            wall;
        inGroups        1(wall);
        nFaces          4076;
        startFace       218073;
    }
    procBoundary3to0
    {
        type            processor;
        inGroups        1(processor);
        nFaces          1317;
        startFace       222149;
        matchTolerance  0.0001;
        transform       unknown;
        myProcNo        3;
        neighbProcNo    0;
    }
    procBoundary3to1
    {
        type            processor;
        inGroups        1(processor);
        nFaces          397;
        startFace       223466;
        matchTolerance  0.0001;
        transform       unknown;
        myProcNo        3;
        neighbProcNo    1;
    }
    procBoundary3to2
    {
        type            processor;
        inGroups        1(processor);
        nFaces          1840;
        startFace       223863;
        matchTolerance  0.0001;
        transform       unknown;
        myProcNo        3;
        neighbProcNo    2;
    }
)

// ************************************************************************* //
