/*--------------------------------*- C++ -*----------------------------------*\
| =========                 |                                                 |
| \\      /  F ield         | OpenFOAM: The Open Source CFD Toolbox           |
|  \\    /   O peration     | Version:  2312                                  |
|   \\  /    A nd           | Website:  www.openfoam.com                      |
|    \\/     M anipulation  |                                                 |
\*---------------------------------------------------------------------------*/
FoamFile
{
    version     2.0;
    format      ascii;
    arch        "LSB;label=32;scalar=64";
    class       polyBoundaryMesh;
    location    "constant/polyMesh";
    object      boundary;
}
// * * * * * * * * * * * * * * * * * * * * * * * * * * * * * * * * * * * * * //

7
(
    outlet(top)
    {
        type            patch;
        nFaces          2123;
        startFace       213961;
    }
    wall(tank_vertical)
    {
        type            wall;
        inGroups        1(wall);
        nFaces          6026;
        startFace       216084;
    }
    inlet(ring)
    {
        type            patch;
        nFaces          0;
        startFace       222110;
    }
    defaultFaces
    {
        type            wall;
        inGroups        1(wall);
        nFaces          216;
        startFace       222110;
    }
    procBoundary0to1
    {
        type            processor;
        inGroups        1(processor);
        nFaces          2211;
        startFace       222326;
        matchTolerance  0.0001;
        transform       unknown;
        myProcNo        0;
        neighbProcNo    1;
    }
    procBoundary0to2
    {
        type            processor;
        inGroups        1(processor);
        nFaces          141;
        startFace       224537;
        matchTolerance  0.0001;
        transform       unknown;
        myProcNo        0;
        neighbProcNo    2;
    }
    procBoundary0to3
    {
        type            processor;
        inGroups        1(processor);
        nFaces          1317;
        startFace       224678;
        matchTolerance  0.0001;
        transform       unknown;
        myProcNo        0;
        neighbProcNo    3;
    }
)

// ************************************************************************* //
