/*--------------------------------*- C++ -*----------------------------------*\
| =========                 |                                                 |
| \\      /  F ield         | OpenFOAM: The Open Source CFD Toolbox           |
|  \\    /   O peration     | Version:  2312                                  |
|   \\  /    A nd           | Website:  www.openfoam.com                      |
|    \\/     M anipulation  |                                                 |
\*---------------------------------------------------------------------------*/
FoamFile
{
    version     2.0;
    format      ascii;
    arch        "LSB;label=32;scalar=64";
    class       polyBoundaryMesh;
    location    "constant/polyMesh";
    object      boundary;
}
// * * * * * * * * * * * * * * * * * * * * * * * * * * * * * * * * * * * * * //

7
(
    outlet(top)
    {
        type            patch;
        nFaces          2458;
        startFace       214729;
    }
    wall(tank_vertical)
    {
        type            wall;
        inGroups        1(wall);
        nFaces          5440;
        startFace       217187;
    }
    inlet(ring)
    {
        type            patch;
        nFaces          0;
        startFace       222627;
    }
    defaultFaces
    {
        type            wall;
        inGroups        1(wall);
        nFaces          170;
        startFace       222627;
    }
    procBoundary1to0
    {
        type            processor;
        inGroups        1(processor);
        nFaces          2211;
        startFace       222797;
        matchTolerance  0.0001;
        transform       unknown;
        myProcNo        1;
        neighbProcNo    0;
    }
    procBoundary1to2
    {
        type            processor;
        inGroups        1(processor);
        nFaces          930;
        startFace       225008;
        matchTolerance  0.0001;
        transform       unknown;
        myProcNo        1;
        neighbProcNo    2;
    }
    procBoundary1to3
    {
        type            processor;
        inGroups        1(processor);
        nFaces          397;
        startFace       225938;
        matchTolerance  0.0001;
        transform       unknown;
        myProcNo        1;
        neighbProcNo    3;
    }
)

// ************************************************************************* //
